Version 4
SHEET 1 2404 680
WIRE -288 -48 -528 -48
WIRE -208 -48 -288 -48
WIRE -80 -48 -208 -48
WIRE 144 -48 -80 -48
WIRE 192 -48 144 -48
WIRE 320 -48 272 -48
WIRE -528 -32 -528 -48
WIRE -288 -32 -288 -48
WIRE -208 -32 -208 -48
WIRE -80 -16 -80 -48
WIRE 144 32 144 -48
WIRE -528 80 -528 48
WIRE -288 80 -288 32
WIRE -208 80 -208 32
WIRE -80 96 -80 64
WIRE 0 96 -80 96
WIRE 320 96 320 -48
WIRE 320 96 288 96
WIRE 352 96 320 96
WIRE 448 96 416 96
WIRE 544 96 448 96
WIRE 656 96 608 96
WIRE 752 96 656 96
WIRE 832 96 752 96
WIRE 880 96 832 96
WIRE 992 96 960 96
WIRE 448 112 448 96
WIRE 752 144 752 96
WIRE 832 144 832 96
WIRE 992 160 992 96
WIRE 656 176 288 176
WIRE 656 192 656 176
WIRE 0 256 -80 256
WIRE 320 256 288 256
WIRE 352 256 320 256
WIRE 448 256 448 192
WIRE 448 256 432 256
WIRE 656 304 656 272
WIRE 752 304 752 208
WIRE 832 304 832 208
WIRE 992 304 992 224
WIRE 320 336 320 256
WIRE 448 336 448 256
WIRE -80 432 -80 400
WIRE 144 432 144 320
WIRE 320 432 320 400
WIRE 448 432 448 416
FLAG 656 304 0
FLAG 752 304 0
FLAG 832 304 0
FLAG 448 432 0
FLAG 320 432 0
FLAG 144 432 0
FLAG -288 80 0
FLAG -208 80 0
FLAG -528 80 0
FLAG -80 432 0
FLAG 992 304 0
SYMBOL PowerProducts\\LT1513 144 176 R0
SYMATTR InstName U1
SYMBOL cap 416 80 R90
WINDOW 0 0 32 VBottom 2
WINDOW 3 32 32 VTop 2
SYMATTR InstName C1
SYMATTR Value 4.7µ
SYMATTR SpiceLine Rser=5m
SYMBOL schottky 544 80 M90
WINDOW 0 0 32 VBottom 2
WINDOW 3 32 32 VTop 2
SYMATTR InstName D1
SYMATTR Value MBRS340
SYMATTR Description Diode
SYMATTR Type diode
SYMBOL res 640 80 R0
SYMATTR InstName R1
SYMATTR Value 78.7k
SYMBOL res 640 176 R0
SYMATTR InstName R2
SYMATTR Value 34k
SYMBOL cap 736 144 R0
SYMATTR InstName C2
SYMATTR Value 22µ
SYMATTR SpiceLine Rser=30m
SYMBOL cap 816 144 R0
SYMATTR InstName C3
SYMATTR Value 22µ
SYMATTR SpiceLine Rser=30m
SYMBOL res 432 320 R0
SYMATTR InstName R3
SYMATTR Value 0.25
SYMBOL cap 304 336 R0
SYMATTR InstName C4
SYMATTR Value 220n
SYMATTR SpiceLine Rser=5m
SYMBOL res 448 240 R90
WINDOW 0 0 56 VBottom 2
WINDOW 3 32 56 VTop 2
SYMATTR InstName R4
SYMATTR Value 39
SYMBOL cap -304 -32 R0
SYMATTR InstName C5
SYMATTR Value 47µ
SYMBOL cap -224 -32 R0
SYMATTR InstName C6
SYMATTR Value 100n
SYMBOL voltage -528 -48 R0
WINDOW 123 0 0 Left 0
WINDOW 39 24 124 Left 2
SYMATTR InstName V1
SYMATTR Value 12
SYMATTR SpiceLine Rser=100m
SYMBOL cap -96 336 R0
SYMATTR InstName C7
SYMATTR Value 100n
SYMBOL res -96 240 R0
SYMATTR InstName R5
SYMATTR Value 270
SYMBOL res -96 -32 R0
SYMATTR InstName R6
SYMATTR Value 1k
SYMBOL res 864 80 M90
WINDOW 0 0 56 VBottom 2
WINDOW 3 32 56 VTop 2
SYMATTR InstName R8
SYMATTR Value 1m
SYMBOL cap 976 160 R0
SYMATTR InstName C8
SYMATTR Value 100µ
SYMBOL ind 288 -64 R90
WINDOW 0 5 56 VBottom 2
WINDOW 3 32 56 VTop 2
SYMATTR InstName L1
SYMATTR Value 10µ
SYMATTR SpiceLine Ipk=4 Rser=25m
SYMBOL ind 432 208 M180
WINDOW 0 36 80 Left 2
WINDOW 3 36 40 Left 2
SYMATTR InstName L2
SYMATTR Value 10µ
SYMATTR SpiceLine Ipk=4 Rser=25m
TEXT -554 424 Left 2 !.tran 30m startup
TEXT 272 -72 Left 2 ;PIS4720
TEXT 464 208 Left 2 ;PIS4720
