Version 4
SHEET 1 1320 680
WIRE 288 96 256 96
WIRE 384 96 368 96
WIRE 400 96 384 96
WIRE 560 96 480 96
WIRE -160 112 -160 80
WIRE 64 144 64 112
WIRE 64 144 32 144
WIRE 96 144 64 144
WIRE 496 144 496 64
WIRE 384 160 384 96
WIRE 464 160 384 160
WIRE 560 176 560 96
WIRE 560 176 528 176
WIRE 608 176 560 176
WIRE 704 176 688 176
WIRE 848 176 704 176
WIRE 96 192 96 144
WIRE 464 192 416 192
WIRE 704 192 704 176
WIRE 416 208 416 192
WIRE -160 224 -160 192
WIRE -160 224 -176 224
WIRE 32 224 32 208
WIRE 32 224 16 224
WIRE 496 240 496 208
WIRE -160 256 -160 224
WIRE 32 256 32 224
WIRE 256 272 256 96
WIRE 416 304 416 288
WIRE 704 304 704 256
WIRE 64 320 32 320
WIRE 96 320 96 256
WIRE 96 320 64 320
WIRE 64 352 64 320
WIRE -160 368 -160 336
WIRE 256 368 256 352
FLAG -176 224 0
FLAG -160 80 +5V
FLAG -160 368 -5V
FLAG 16 224 0
FLAG 64 112 +5V
FLAG 64 352 -5V
FLAG 496 64 +5V
FLAG 496 240 -5V
FLAG 416 304 0
FLAG 256 368 0
FLAG 704 304 0
SYMBOL voltage -160 240 R0
WINDOW 123 0 0 Left 0
WINDOW 39 24 124 Left 2
SYMATTR SpiceLine Rser=100m
SYMATTR InstName V1
SYMATTR Value 5
SYMBOL voltage -160 96 R0
WINDOW 123 0 0 Left 0
WINDOW 39 24 124 Left 2
SYMATTR SpiceLine Rser=100m
SYMATTR InstName V2
SYMATTR Value 5
SYMBOL cap 16 144 R0
SYMATTR InstName C1
SYMATTR Value 100n
SYMBOL cap 16 256 R0
SYMATTR InstName C2
SYMATTR Value 100n
SYMBOL cap 80 192 R0
SYMATTR InstName C3
SYMATTR Value 100n
SYMBOL voltage 256 256 R0
SYMATTR InstName V3
SYMATTR Value PWL REPEAT FOREVER (0 -4m 1u -90m 2u -4m) ENDREPEAT
SYMBOL res 400 192 R0
SYMATTR InstName R1
SYMATTR Value 1k
SYMBOL res 384 80 R90
WINDOW 0 0 56 VBottom 2
WINDOW 3 32 56 VTop 2
SYMATTR InstName R2
SYMATTR Value 30k
SYMBOL res 496 80 R90
WINDOW 0 0 56 VBottom 2
WINDOW 3 32 56 VTop 2
SYMATTR InstName R3
SYMATTR Value 150k
SYMBOL cap 688 192 R0
SYMATTR InstName C4
SYMATTR Value 10n
SYMBOL res 704 160 R90
WINDOW 0 0 56 VBottom 2
WINDOW 3 32 56 VTop 2
SYMATTR InstName R4
SYMATTR Value 62k
SYMBOL Opamps\\opamp2 496 112 R0
SYMATTR InstName U1
SYMATTR Value MCP6H01
SYMBOL Opamps\\opamp2 880 96 R0
SYMATTR InstName U2
SYMATTR Value MCP6H01
TEXT 24 24 Left 2 !.inc MCP6H01.lib
TEXT 24 48 Left 2 !.tran 5m
TEXT 24 0 Left 2 !.options cshunt = 1e-14
TEXT 32 -144 Left 2 ;Spice Convergence issues:\n  http://ltwiki.org/index.php?title=Convergence_problems%3F
