Version 4
SHEET 1 1360 680
WIRE 976 32 960 32
WIRE 1088 32 1040 32
WIRE -160 112 -160 80
WIRE 352 112 336 112
WIRE 448 112 432 112
WIRE 528 112 448 112
WIRE 624 112 608 112
WIRE 960 112 960 32
WIRE 960 112 880 112
WIRE 976 112 960 112
WIRE 1088 112 1088 32
WIRE 1088 112 1056 112
WIRE 64 144 64 112
WIRE 64 144 32 144
WIRE 96 144 64 144
WIRE 496 144 496 64
WIRE 928 144 928 64
WIRE 448 160 448 112
WIRE 464 160 448 160
WIRE 624 160 624 112
WIRE 640 160 624 160
WIRE 736 160 720 160
WIRE 784 160 736 160
WIRE 880 160 880 112
WIRE 880 160 864 160
WIRE 896 160 880 160
WIRE 624 176 624 160
WIRE 624 176 528 176
WIRE 736 176 736 160
WIRE 1088 176 1088 112
WIRE 1088 176 960 176
WIRE 1200 176 1168 176
WIRE 96 192 96 144
WIRE 352 192 256 192
WIRE 464 192 432 192
WIRE 896 192 848 192
WIRE 1200 192 1200 176
WIRE 848 208 848 192
WIRE -160 224 -160 192
WIRE -160 224 -176 224
WIRE 32 224 32 208
WIRE 32 224 16 224
WIRE 496 240 496 208
WIRE 928 240 928 208
WIRE -160 256 -160 224
WIRE 32 256 32 224
WIRE 256 272 256 192
WIRE 736 288 736 240
WIRE 1200 288 1200 256
WIRE 64 320 32 320
WIRE 96 320 96 256
WIRE 96 320 64 320
WIRE 64 352 64 320
WIRE -160 368 -160 336
WIRE 256 368 256 352
FLAG -176 224 0
FLAG -160 80 +5V
FLAG -160 368 -5V
FLAG 16 224 0
FLAG 64 112 +5V
FLAG 64 352 -5V
FLAG 496 64 +5V
FLAG 496 240 -5V
FLAG 256 368 0
FLAG 736 288 0
FLAG 336 112 0
FLAG 848 288 0
FLAG 928 64 +5V
FLAG 928 240 -5V
FLAG 1200 288 0
SYMBOL voltage -160 240 R0
WINDOW 123 0 0 Left 0
WINDOW 39 24 124 Left 2
SYMATTR SpiceLine Rser=100m
SYMATTR InstName V1
SYMATTR Value 5
SYMBOL voltage -160 96 R0
WINDOW 123 0 0 Left 0
WINDOW 39 24 124 Left 2
SYMATTR SpiceLine Rser=100m
SYMATTR InstName V2
SYMATTR Value 5
SYMBOL cap 16 144 R0
SYMATTR InstName C1
SYMATTR Value 100n
SYMBOL cap 16 256 R0
SYMATTR InstName C2
SYMATTR Value 100n
SYMBOL cap 80 192 R0
SYMATTR InstName C3
SYMATTR Value 100n
SYMBOL voltage 256 256 R0
SYMATTR InstName V3
SYMATTR Value PWL REPEAT FOREVER (0 -4m 1u -90m 2u -4m) ENDREPEAT
SYMBOL cap 720 176 R0
SYMATTR InstName C4
SYMATTR Value 100n
SYMBOL res 736 144 R90
WINDOW 0 0 56 VBottom 2
WINDOW 3 32 56 VTop 2
SYMATTR InstName R4
SYMATTR Value 6k2
SYMBOL Opamps\\opamp2 496 112 R0
SYMATTR InstName U1
SYMATTR Value MCP6H01
SYMBOL res 448 176 R90
WINDOW 0 0 56 VBottom 2
WINDOW 3 32 56 VTop 2
SYMATTR InstName R1
SYMATTR Value 1k
SYMBOL res 448 96 R90
WINDOW 0 0 56 VBottom 2
WINDOW 3 32 56 VTop 2
SYMATTR InstName R2
SYMATTR Value 13k
SYMBOL res 624 96 R90
WINDOW 0 0 56 VBottom 2
WINDOW 3 32 56 VTop 2
SYMATTR InstName R3
SYMATTR Value 51k
SYMBOL Opamps\\opamp2 928 112 R0
SYMATTR InstName U2
SYMATTR Value MCP6H01
SYMBOL res 832 192 R0
SYMATTR InstName R5
SYMATTR Value 1k
SYMBOL res 880 144 R90
WINDOW 0 0 56 VBottom 2
WINDOW 3 32 56 VTop 2
SYMATTR InstName R6
SYMATTR Value 100k
SYMBOL res 1072 96 R90
WINDOW 0 0 56 VBottom 2
WINDOW 3 32 56 VTop 2
SYMATTR InstName R7
SYMATTR Value 200k
SYMBOL res 1184 160 R90
WINDOW 0 0 56 VBottom 2
WINDOW 3 32 56 VTop 2
SYMATTR InstName R8
SYMATTR Value 200
SYMBOL cap 1184 192 R0
SYMATTR InstName C6
SYMATTR Value 220n
TEXT 24 24 Left 2 !.inc MCP6H01.lib
TEXT 24 48 Left 2 !.tran 5m
TEXT 24 -88 Left 2 !.options cshunt = 1e-14
TEXT 32 -144 Left 2 ;Spice Convergence issues:\n  http://ltwiki.org/index.php?title=Convergence_problems%3F
